anonymize/ieee123/anonymized_files/Transformer.dss
new Transformer.5c52f85acd IsDelta=False MaxTap=1.1 MinTap=0.9 NumTaps=32 NumWindings=2 R=5e-06 Rneut=-1.0 Tap=1.03125 Wdg=2 XfmrCode= Xhl=0.001 Xht=35.0 Xlt=30.0 Xneut=0.0 kV=4.16 kVA=5000.0 Idx=1 CoreType=0 RdcOhms=4.9032533333333345e-08 WdgCurrents=[515.9013447009493, -231.23751036822796, -515.9013447009493, 231.23751036822796, -500.2679706191411, 224.23031309247017, 500.2679706191411, -224.23031309247017, -298.84833340346813, -237.87016870826483, 298.84833340346813, 237.87016870826483, 289.79232331365347, 230.66198176890612, -289.79232331365347, -230.66198176890612, -82.38271944969893, 468.05112770199776, 82.38271944969893, -468.05112770199776, 79.88627339154482, -453.86776019632816, -79.88627339154482, 453.86776019632816] WdgVoltages=[2476.8003708013957, -0.07153291734265582, -1238.4492408745539, -2144.9584299083663, -1238.3513244208918, 2145.011268987784] LossesByType=[0.23931257263757288, 23.92927264102036, 0.23931257263757288, 23.92927264102036, 0.0, 0.0] bus=0b3bb9ef27 ;
new Transformer.4f7699baa1 IsDelta=True MaxTap=1.1 MinTap=0.9 NumTaps=32 NumWindings=2 R=0.635 Rneut=-1.0 Tap=1.0 Wdg=2 XfmrCode= Xhl=2.72 Xht=35.0 Xlt=30.0 Xneut=0.0 kV=0.48 kVA=150.0 Idx=2 CoreType=0 RdcOhms=0.00829056 WdgCurrents=[1.7214424303801934e-06, -6.913381668027796e-06, -4.854965794720556e-06, 5.3541844806659356e-06, -1.7439998828194803e-05, 6.801312792958925e-07, -9.297780025008251e-06, -1.4508284266412375e-05, -7.000607297413808e-06, 2.0061189900388854e-06, 7.085546201324178e-06, 1.4567822006483766e-06, 9.2977795702609e-06, 1.4508284039038699e-05, -8.142219257933903e-06, 1.5188415545708267e-05, 5.2065723821215215e-06, 4.961801096214913e-06, -2.3031728915157146e-06, -6.756428319931729e-06, 8.142219712681253e-06, -1.518841486358724e-05, 1.7439999282942154e-05, -6.801312792958925e-07] WdgVoltages=[419.929302156203, 225.11608662779543, -18.804264325070292, -482.1811012983128, -401.1250378311327, 257.06501467051737] LossesByType=[2.2303000140212424e-10, 0.09937501651875245, 2.2303000140212424e-10, 0.09937501651875245, 0.0, 0.0] bus=bc8d3b13c8 ;
new Transformer.e96572dbc5 IsDelta=False MaxTap=1.1 MinTap=0.9 NumTaps=32 NumWindings=2 R=5e-06 Rneut=-1.0 Tap=1.0 Wdg=2 XfmrCode= Xhl=0.01 Xht=35.0 Xlt=30.0 Xneut=0.0 kV=2.402 kVA=2000.0 Idx=3 CoreType=0 RdcOhms=1.2260408500000002e-07 WdgCurrents=[24.718667799810646, -13.025646794587374, -24.718667799810646, 13.025646794587374, -24.718667799810646, 13.025646794587374, 24.718667799810646, -13.025646794587374] WdgVoltages=[2413.0324071675213, -49.805348009479125] LossesByType=[0.0002252107224194333, 0.2252107260574121, 0.0002252107224194333, 0.2252107260574121, 0.0, 0.0] bus=56151ef4f0 ;
new Transformer.73391c4fe1 IsDelta=False MaxTap=1.1 MinTap=0.9 NumTaps=32 NumWindings=2 R=5e-06 Rneut=-1.0 Tap=1.0124999999999997 Wdg=2 XfmrCode= Xhl=0.01 Xht=35.0 Xlt=30.0 Xneut=0.0 kV=2.402 kVA=2000.0 Idx=4 CoreType=0 RdcOhms=1.2260408500000002e-07 WdgCurrents=[16.552634471852798, -9.051528468728065, -16.552634471852798, 9.051528468728065, -16.348280959879048, 8.939781202934682, 16.348280959879048, -8.939781202934682] WdgVoltages=[2403.463851958573, -85.80540806988807] LossesByType=[0.00010268126061419025, 0.10267763524097973, 0.00010268126061419025, 0.10267763524097973, 0.0, 0.0] bus=5f8a30b486 ;
new Transformer.0e4b0662cd IsDelta=False MaxTap=1.1 MinTap=0.9 NumTaps=32 NumWindings=2 R=5e-06 Rneut=-1.0 Tap=1.05625 Wdg=2 XfmrCode= Xhl=0.01 Xht=35.0 Xlt=30.0 Xneut=0.0 kV=2.402 kVA=2000.0 Idx=5 CoreType=0 RdcOhms=1.2260408500000002e-07 WdgCurrents=[186.97009569808142, -19.736447913572192, -186.97009569808142, 19.736447913572192, -177.01310835313052, 18.68539447337389, 177.01310835313052, -18.68539447337389] WdgVoltages=[2492.0576561419234, -115.23781173448644] LossesByType=[0.010197331837844104, 10.197011401742202, 0.010197331837844104, 10.197011401742202, 0.0, 0.0] bus=c7b7f5dd61 ;
new Transformer.bd49fa848d IsDelta=False MaxTap=1.1 MinTap=0.9 NumTaps=32 NumWindings=2 R=5e-06 Rneut=-1.0 Tap=0.9999999999999999 Wdg=2 XfmrCode= Xhl=0.01 Xht=35.0 Xlt=30.0 Xneut=0.0 kV=2.402 kVA=2000.0 Idx=6 CoreType=0 RdcOhms=1.2260408500000002e-07 WdgCurrents=[-0.7562001431360841, 18.61915140133351, 0.7562001431360841, -18.61915140133351, 0.7562001431360841, -18.61915140133351, -0.7562001431360841, 18.61915140133351] WdgVoltages=[-1160.0347378737977, 2100.604844338697] LossesByType=[0.00010007101082010195, 0.10017569902629475, 0.00010007101082010195, 0.10017569902629475, 0.0, 0.0] bus=47539c6991 ;
new Transformer.0aa1fedb04 IsDelta=False MaxTap=1.1 MinTap=0.9 NumTaps=32 NumWindings=2 R=5e-06 Rneut=-1.0 Tap=1.0312499999999998 Wdg=2 XfmrCode= Xhl=0.01 Xht=35.0 Xlt=30.0 Xneut=0.0 kV=2.402 kVA=2000.0 Idx=7 CoreType=0 RdcOhms=1.2260408500000002e-07 WdgCurrents=[-82.61101761367172, -143.78967714123428, 82.61101761367172, 143.78967714123428, 80.10765344370157, 139.43241419736296, -80.10765344370157, -139.43241419736296] WdgVoltages=[-1320.080575430225, -2124.4049545849102] LossesByType=[0.007933453773148358, 7.933219791419106, 0.007933453773148358, 7.933219791419106, 0.0, 0.0] bus=f8ffce859d ;
new Transformer.9658558dff IsDelta=False MaxTap=1.1 MinTap=0.9 NumTaps=32 NumWindings=2 R=5e-06 Rneut=-1.0 Tap=1.04375 Wdg=2 XfmrCode= Xhl=0.01 Xht=35.0 Xlt=30.0 Xneut=0.0 kV=2.402 kVA=2000.0 Idx=8 CoreType=0 RdcOhms=1.2260408500000002e-07 WdgCurrents=[-91.96320661436766, 156.8806510567665, 91.96320661436766, -156.8806510567665, 88.10846142657101, -150.304815383628, -88.10846142657101, 150.304815383628] WdgVoltages=[-1165.890794796906, 2211.5769177459133] LossesByType=[0.009540336497593671, 9.539684699848294, 0.009540336497593671, 9.539684699848294, 0.0, 0.0] bus=b557323f91 ;
